5324346
  -OEChem-07062319193D

 43 43  0     0  0  0  0  0  0999 V2000
   -5.8060   -0.0916    0.8819 F   0  0  0  0  0  0  0  0  0  0  0  0
   -5.2918   -1.8005   -0.3507 F   0  0  0  0  0  0  0  0  0  0  0  0
   -5.6138    0.1430   -1.2713 F   0  0  0  0  0  0  0  0  0  0  0  0
    4.4715   -4.0544    0.2267 O   0  0  0  0  0  0  0  0  0  0  0  0
    2.3471    2.1361    0.1852 O   0  0  0  0  0  0  0  0  0  0  0  0
    0.9747    1.9615   -0.0260 N   0  0  0  0  0  0  0  0  0  0  0  0
    4.6192    4.9247   -0.5769 N   0  0  0  0  0  0  0  0  0  0  0  0
    2.1336   -1.1244   -0.0255 C   0  0  0  0  0  0  0  0  0  0  0  0
    1.4822   -0.2351    1.0336 C   0  0  0  0  0  0  0  0  0  0  0  0
    3.0253   -2.1855    0.6146 C   0  0  0  0  0  0  0  0  0  0  0  0
    0.5604    0.8016    0.3941 C   0  0  0  0  0  0  0  0  0  0  0  0
   -0.8924    0.4736    0.2428 C   0  0  0  0  0  0  0  0  0  0  0  0
    3.6450   -3.1031   -0.4298 C   0  0  0  0  0  0  0  0  0  0  0  0
   -1.8448    1.4922    0.2751 C   0  0  0  0  0  0  0  0  0  0  0  0
   -1.2935   -0.8511    0.0693 C   0  0  0  0  0  0  0  0  0  0  0  0
   -3.5994   -0.1385   -0.0399 C   0  0  0  0  0  0  0  0  0  0  0  0
   -3.1983    1.1861    0.1337 C   0  0  0  0  0  0  0  0  0  0  0  0
   -2.6470   -1.1572   -0.0721 C   0  0  0  0  0  0  0  0  0  0  0  0
   -5.0463   -0.4663   -0.1898 C   0  0  0  0  0  0  0  0  0  0  0  0
    2.7088    3.4197   -0.3000 C   0  0  0  0  0  0  0  0  0  0  0  0
    5.0669   -4.9550   -0.6978 C   0  0  0  0  0  0  0  0  0  0  0  0
    4.1987    3.6242   -0.0772 C   0  0  0  0  0  0  0  0  0  0  0  0
    1.3876   -1.6053   -0.6643 H   0  0  0  0  0  0  0  0  0  0  0  0
    2.7396   -0.5014   -0.6957 H   0  0  0  0  0  0  0  0  0  0  0  0
    2.2433    0.2667    1.6414 H   0  0  0  0  0  0  0  0  0  0  0  0
    0.9027   -0.8461    1.7358 H   0  0  0  0  0  0  0  0  0  0  0  0
    3.8208   -1.7096    1.2014 H   0  0  0  0  0  0  0  0  0  0  0  0
    2.4467   -2.7887    1.3255 H   0  0  0  0  0  0  0  0  0  0  0  0
    4.2489   -2.5186   -1.1337 H   0  0  0  0  0  0  0  0  0  0  0  0
    2.8575   -3.6237   -0.9873 H   0  0  0  0  0  0  0  0  0  0  0  0
   -1.5566    2.5304    0.4167 H   0  0  0  0  0  0  0  0  0  0  0  0
   -0.5933   -1.6768    0.0479 H   0  0  0  0  0  0  0  0  0  0  0  0
   -3.9334    1.9862    0.1620 H   0  0  0  0  0  0  0  0  0  0  0  0
   -2.9407   -2.1950   -0.2039 H   0  0  0  0  0  0  0  0  0  0  0  0
    2.1329    4.1849    0.2352 H   0  0  0  0  0  0  0  0  0  0  0  0
    2.4704    3.4829   -1.3690 H   0  0  0  0  0  0  0  0  0  0  0  0
    5.6905   -5.6586   -0.1398 H   0  0  0  0  0  0  0  0  0  0  0  0
    5.7002   -4.4136   -1.4072 H   0  0  0  0  0  0  0  0  0  0  0  0
    4.2974   -5.5194   -1.2334 H   0  0  0  0  0  0  0  0  0  0  0  0
    4.7625    2.8329   -0.5838 H   0  0  0  0  0  0  0  0  0  0  0  0
    4.4328    3.5372    0.9900 H   0  0  0  0  0  0  0  0  0  0  0  0
    4.1193    5.6619   -0.0816 H   0  0  0  0  0  0  0  0  0  0  0  0
    5.6080    5.0627   -0.3721 H   0  0  0  0  0  0  0  0  0  0  0  0
  1 19  1  0  0  0  0
  2 19  1  0  0  0  0
  3 19  1  0  0  0  0
  4 13  1  0  0  0  0
  4 21  1  0  0  0  0
  5  6  1  0  0  0  0
  5 20  1  0  0  0  0
  6 11  2  0  0  0  0
  7 22  1  0  0  0  0
  7 42  1  0  0  0  0
  7 43  1  0  0  0  0
  8  9  1  0  0  0  0
  8 10  1  0  0  0  0
  8 23  1  0  0  0  0
  8 24  1  0  0  0  0
  9 11  1  0  0  0  0
  9 25  1  0  0  0  0
  9 26  1  0  0  0  0
 10 13  1  0  0  0  0
 10 27  1  0  0  0  0
 10 28  1  0  0  0  0
 11 12  1  0  0  0  0
 12 14  2  0  0  0  0
 12 15  1  0  0  0  0
 13 29  1  0  0  0  0
 13 30  1  0  0  0  0
 14 17  1  0  0  0  0
 14 31  1  0  0  0  0
 15 18  2  0  0  0  0
 15 32  1  0  0  0  0
 16 17  2  0  0  0  0
 16 18  1  0  0  0  0
 16 19  1  0  0  0  0
 17 33  1  0  0  0  0
 18 34  1  0  0  0  0
 20 22  1  0  0  0  0
 20 35  1  0  0  0  0
 20 36  1  0  0  0  0
 21 37  1  0  0  0  0
 21 38  1  0  0  0  0
 21 39  1  0  0  0  0
 22 40  1  0  0  0  0
 22 41  1  0  0  0  0
M  END
> <PUBCHEM_COMPOUND_CID>
5324346

> <PUBCHEM_CONFORMER_RMSD>
1

> <PUBCHEM_CONFORMER_DIVERSEORDER>
1
16
35
11
34
17
19
24
21
27
32
7
6
4
28
22
8
30
10
20
33
25
29
36
14
13
18
2
23
15
3
31
5
9
12
26

> <PUBCHEM_MMFF94_PARTIAL_CHARGES>
26
1 -0.34
11 0.3
12 0.09
13 0.28
14 -0.15
15 -0.15
16 -0.14
17 -0.15
18 -0.15
19 1.16
2 -0.34
20 0.28
21 0.28
22 0.27
3 -0.34
31 0.15
32 0.15
33 0.15
34 0.15
4 -0.56
42 0.36
43 0.36
5 -0.22
6 -0.51
7 -0.99
9 0.06

> <PUBCHEM_EFFECTIVE_ROTOR_COUNT>
10

> <PUBCHEM_PHARMACOPHORE_FEATURES>
5
1 4 acceptor
1 6 acceptor
1 7 cation
1 7 donor
6 12 14 15 16 17 18 rings

> <PUBCHEM_HEAVY_ATOM_COUNT>
22

> <PUBCHEM_ATOM_DEF_STEREO_COUNT>
0

> <PUBCHEM_ATOM_UDEF_STEREO_COUNT>
0

> <PUBCHEM_BOND_DEF_STEREO_COUNT>
1

> <PUBCHEM_BOND_UDEF_STEREO_COUNT>
0

> <PUBCHEM_ISOTOPIC_ATOM_COUNT>
0

> <PUBCHEM_COMPONENT_COUNT>
1

> <PUBCHEM_CACTVS_TAUTO_COUNT>
1

> <PUBCHEM_CONFORMER_ID>
00513E3A00000001

> <PUBCHEM_MMFF94_ENERGY>
37.5644

> <PUBCHEM_FEATURE_SELFOVERLAP>
25.372

> <PUBCHEM_SHAPE_FINGERPRINT>
10411042 1 18194403286709294322
11056379 131 17402620641480445470
12107183 9 18054518997923247329
12788726 201 17323522887089439858
13009979 54 17915464899997034520
13533116 47 18342735248117042899
13540713 5 18202291273400368329
13955234 65 18341332287927185152
13968360 50 18266170820099017500
14178000 29 18268145366672520818
14508225 48 18122618362801083476
15878777 1 9364292740774460648
15927050 60 18196939000513944734
167882 2 18410574019558811782
17492 89 18411979165971848163
1813 80 18264763269074215802
18915476 22 18264505038091025442
20286276 3 18409451358511198897
20600515 1 17697325010430694628
20645477 70 18335692867287582147
22849339 104 17400669485193322276
23366157 5 18260550026368483496
23559900 14 18339351986002526875
23566358 27 18411975892563125678
3004659 81 18043536006322865118
3421961 26 18341326713112616010
4409770 3 17325486605918884492
5385378 56 18339085994040501368
59755656 215 18336548317325351884
6025842 7 18338230573946066349
6700243 42 17195754173218716142
7364860 26 18411135865932640848
77188 2 18266459798620698356
9709674 26 18408321103507628795
9841814 1 18114732751158398866
9981440 41 17975976780535880280

> <PUBCHEM_SHAPE_MULTIPOLES>
409.23
12.5
6.12
0.81
9.3
1.7
0
-7.22
2.21
-18.17
1.51
0.11
-0.11
-0.24

> <PUBCHEM_SHAPE_SELFOVERLAP>
820.289

> <PUBCHEM_SHAPE_VOLUME>
242.6

> <PUBCHEM_COORDINATE_TYPE>
2
5
10

$$$$
